REMARK  16 active torsions:
REMARK  status: ('A' for Active; 'I' for Inactive)
REMARK    1  A    between atoms: C1_1  and  C2_4 
REMARK    2  A    between atoms: C1_1  and  C3_6 
REMARK    3  A    between atoms: C2_4  and  C4_9 
REMARK    4  A    between atoms: C2_4  and  N2_33 
REMARK    5  A    between atoms: C3_6  and  N1_14 
REMARK    6  A    between atoms: C4_9  and  S1_12 
REMARK    7  A    between atoms: S1_12  and  C5_13 
REMARK    8  A    between atoms: N2_33  and  C17_41 
REMARK    9  A    between atoms: C14_37  and  S2_44 
REMARK   10  A    between atoms: C16_40  and  N7_102 
REMARK   11  A    between atoms: S2_44  and  N6_97 
REMARK   12  A    between atoms: C21_51  and  C25_57 
REMARK   13  A    between atoms: C22_52  and  C31_67 
REMARK   14  A    between atoms: C31_67  and  N3_70 
REMARK   15  A    between atoms: N4_77  and  C36_84 
REMARK   16  A    between atoms: C42_96  and  N6_97 
ROOT
HETATM    1  C36 1E9 A 201      10.471  24.210   8.853  1.00 18.75     0.031 A 
HETATM    2  C37 1E9 A 201      11.357  25.264   8.503  1.00 16.19     0.055 A 
HETATM    3  C38 1E9 A 201      12.381  22.660   9.150  1.00 19.30     0.019 A 
HETATM    4  C39 1E9 A 201      10.992  22.919   9.157  1.00 19.11     0.030 A 
HETATM    5  C40 1E9 A 201      13.230  23.723   8.814  1.00 19.63     0.033 A 
HETATM    6  C41 1E9 A 201      12.730  24.980   8.507  1.00 16.72     0.096 A 
HETATM    7  S3  1E9 A 201      14.094  26.022   8.141  1.00 18.06     0.265 S 
HETATM    8  N5  1E9 A 201      15.235  24.849   8.409  1.00 17.57    -0.264 N 
HETATM    9  H5  1E9 A 201      16.239  25.001   8.320  1.00  0.00     0.180 HD
HETATM   10  C42 1E9 A 201      14.701  23.720   8.744  1.00 20.00     0.136 A 
HETATM   11  O3  1E9 A 201      14.089  26.333   6.697  1.00 20.15    -0.200 OA
HETATM   12  O4  1E9 A 201      14.191  27.125   9.108  1.00 17.05    -0.200 OA
ENDROOT
BRANCH  10  13
HETATM   13  N6  1E9 A 201      15.382  22.543   9.023  1.00 19.56    -0.264 N 
HETATM   14  H6  1E9 A 201      14.894  21.656   8.904  1.00  0.00     0.180 HD
BRANCH  13  15
HETATM   15  S2  1E9 A 201      16.996  22.520   9.553  1.00 22.41     0.264 S 
HETATM   16  O1  1E9 A 201      17.174  21.144  10.043  1.00 23.80    -0.200 OA
HETATM   17  O2  1E9 A 201      17.779  23.075   8.429  1.00 22.92    -0.200 OA
BRANCH  15  18
HETATM   18  C14 1E9 A 201      17.089  23.633  10.937  1.00 23.02     0.082 A 
HETATM   19  C13 1E9 A 201      17.293  25.004  10.734  1.00 21.77     0.028 A 
HETATM   20  C18 1E9 A 201      17.349  25.843  11.855  1.00 19.95     0.033 A 
HETATM   21  C17 1E9 A 201      17.198  25.337  13.172  1.00 22.61     0.061 A 
HETATM   22  C16 1E9 A 201      16.974  23.941  13.355  1.00 23.52     0.130 A 
HETATM   23  C15 1E9 A 201      16.932  23.098  12.223  1.00 21.63     0.063 A 
BRANCH  21  24
HETATM   24  N2  1E9 A 201      17.250  26.203  14.210  1.00 23.64    -0.383 N 
HETATM   25  H2  1E9 A 201      17.051  25.827  15.137  1.00  0.00     0.160 HD
BRANCH  24  26
HETATM   26  C2  1E9 A 201      17.563  27.631  14.127  1.00 26.22     0.093 C 
BRANCH  26  27
HETATM   27  C1  1E9 A 201      18.765  28.015  15.016  1.00 31.62     0.056 C 
BRANCH  27  28
HETATM   28  C3  1E9 A 201      18.435  28.887  16.241  1.00 33.21     0.273 C 
BRANCH  28  29
HETATM   29  N1  1E9 A 201      18.203  28.044  17.417  1.00 35.97     0.080 N 
HETATM   30  C6  1E9 A 201      18.451  26.650  17.067  1.00 32.92     0.309 C 
HETATM   31  C7  1E9 A 201      19.063  28.431  18.539  1.00 34.94     0.309 C 
ENDBRANCH  28  29
ENDBRANCH  27  28
ENDBRANCH  26  27
BRANCH  26  32
HETATM   32  C4  1E9 A 201      16.327  28.502  14.477  1.00 25.82     0.104 C 
BRANCH  32  33
HETATM   33  S1  1E9 A 201      14.890  27.670  15.257  1.00 29.66    -0.128 SA
BRANCH  33  34
HETATM   34  C5  1E9 A 201      14.182  26.615  14.045  1.00 22.11     0.000 A 
HETATM   35  C8  1E9 A 201      13.929  25.265  14.348  1.00 22.15     0.018 A 
HETATM   36  C9  1E9 A 201      13.361  24.435  13.363  1.00 19.48     0.001 A 
HETATM   37  C10 1E9 A 201      13.038  24.960  12.094  1.00 17.77     0.000 A 
HETATM   38  C11 1E9 A 201      13.294  26.313  11.797  1.00 21.70     0.001 A 
HETATM   39  C12 1E9 A 201      13.865  27.148  12.778  1.00 20.86     0.018 A 
ENDBRANCH  33  34
ENDBRANCH  32  33
ENDBRANCH  26  32
ENDBRANCH  24  26
ENDBRANCH  21  24
BRANCH  22  40
HETATM   40  N7  1E9 A 201      16.817  23.303  14.679  1.00 25.21    -0.113 N 
HETATM   41  O5  1E9 A 201      16.463  22.130  14.716  1.00 29.38    -0.532 OA
HETATM   42  O6  1E9 A 201      17.090  23.948  15.682  1.00 22.75    -0.532 OA
ENDBRANCH  22  40
ENDBRANCH  15  18
ENDBRANCH  13  15
ENDBRANCH  10  13
BRANCH   1  43
HETATM   43  N4  1E9 A 201       9.128  24.395   8.898  1.00 20.11    -0.377 N 
HETATM   44  C33 1E9 A 201       8.527  25.696   8.528  1.00 21.29     0.153 C 
HETATM   45  C32 1E9 A 201       7.025  25.588   8.152  1.00 19.39     0.292 C 
HETATM   46  N3  1E9 A 201       6.313  24.961   9.275  1.00 22.93     0.095 N 
HETATM   47  C35 1E9 A 201       6.801  23.577   9.386  1.00 21.59     0.292 C 
HETATM   48  C34 1E9 A 201       8.278  23.655   9.839  1.00 20.66     0.153 C 
BRANCH  46  49
HETATM   49  C31 1E9 A 201       4.856  25.019   9.088  1.00 24.32     0.312 C 
BRANCH  49  50
HETATM   50  C22 1E9 A 201       4.262  23.618   9.215  1.00 23.38    -0.019 A 
HETATM   51  C21 1E9 A 201       3.855  23.090  10.479  1.00 19.94    -0.018 A 
HETATM   52  C20 1E9 A 201       3.328  21.775  10.533  1.00 21.54     0.013 A 
HETATM   53  C19 1E9 A 201       3.231  20.981   9.368  1.00 24.24     0.001 A 
HETATM   54  C24 1E9 A 201       3.661  21.504   8.126  1.00 26.65     0.001 A 
HETATM   55  C23 1E9 A 201       4.175  22.815   8.048  1.00 23.38     0.010 A 
BRANCH  51  56
HETATM   56  C25 1E9 A 201       3.888  23.798  11.777  1.00 21.83    -0.025 A 
HETATM   57  C26 1E9 A 201       3.354  25.103  11.923  1.00 22.31     0.014 A 
HETATM   58  C27 1E9 A 201       3.356  25.753  13.178  1.00 21.61     0.024 A 
HETATM   59  C28 1E9 A 201       3.885  25.095  14.305  1.00 21.37     0.034 A 
HETATM   60  C29 1E9 A 201       4.425  23.796  14.181  1.00 18.64     0.024 A 
HETATM   61 CL1  1E9 A 201       3.881  25.880  15.845  1.00 25.72    -0.084 Cl
HETATM   62  C30 1E9 A 201       4.418  23.147  12.922  1.00 20.46     0.014 A 
ENDBRANCH  51  56
ENDBRANCH  49  50
ENDBRANCH  46  49
ENDBRANCH   1  43
TORSDOF 16
