REMARK  16 active torsions:
REMARK  status: ('A' for Active; 'I' for Inactive)
REMARK    1  A    between atoms: C1_1  and  C2_4 
REMARK    2  A    between atoms: C1_1  and  C3_6 
REMARK    3  A    between atoms: C2_4  and  C4_9 
REMARK    4  A    between atoms: C2_4  and  N2_33 
REMARK    5  A    between atoms: C3_6  and  N1_14 
REMARK    6  A    between atoms: C4_9  and  S1_12 
REMARK    7  A    between atoms: S1_12  and  C5_13 
REMARK    8  A    between atoms: N2_33  and  C17_41 
REMARK    9  A    between atoms: C14_37  and  S2_44 
REMARK   10  A    between atoms: C16_40  and  N7_102 
REMARK   11  A    between atoms: S2_44  and  N6_97 
REMARK   12  A    between atoms: C21_51  and  C25_57 
REMARK   13  A    between atoms: C22_52  and  C31_67 
REMARK   14  A    between atoms: C31_67  and  N3_70 
REMARK   15  A    between atoms: N4_77  and  C36_84 
REMARK   16  A    between atoms: C42_96  and  N6_97 
ROOT
HETATM    1  C36 1E9 A 201      10.261  24.406   8.910  1.00 18.75     0.031 A 
HETATM    2  C37 1E9 A 201      11.124  25.482   8.571  1.00 16.19     0.055 A 
HETATM    3  C38 1E9 A 201      12.207  22.906   9.235  1.00 19.30     0.019 A 
HETATM    4  C39 1E9 A 201      10.812  23.129   9.222  1.00 19.11     0.030 A 
HETATM    5  C40 1E9 A 201      13.033  23.991   8.909  1.00 19.63     0.033 A 
HETATM    6  C41 1E9 A 201      12.504  25.234   8.594  1.00 16.72     0.096 A 
HETATM    7  S3  1E9 A 201      13.845  26.311   8.246  1.00 18.06     0.265 S 
HETATM    8  N5  1E9 A 201      15.013  25.169   8.531  1.00 17.57    -0.264 N 
HETATM    9  H5  1E9 A 201      16.014  25.347   8.456  1.00  0.00     0.180 HD
HETATM   10  C42 1E9 A 201      14.504  24.026   8.860  1.00 20.00     0.136 A 
HETATM   11  O3  1E9 A 201      13.852  26.621   6.802  1.00 20.15    -0.200 OA
HETATM   12  O4  1E9 A 201      13.900  27.417   9.213  1.00 17.05    -0.200 OA
ENDROOT
BRANCH  10  13
HETATM   13  N6  1E9 A 201      15.212  22.868   9.149  1.00 19.56    -0.264 N 
HETATM   14  H6  1E9 A 201      14.709  21.981   9.174  1.00  0.00     0.180 HD
BRANCH  13  15
HETATM   15  S2  1E9 A 201      16.881  22.866   9.463  1.00 22.41     0.264 S 
HETATM   16  O1  1E9 A 201      17.171  21.455   9.761  1.00 23.80    -0.200 OA
HETATM   17  O2  1E9 A 201      17.489  23.582   8.322  1.00 22.92    -0.200 OA
BRANCH  15  18
HETATM   18  C14 1E9 A 201      17.117  23.820  10.945  1.00 23.02     0.082 A 
HETATM   19  C13 1E9 A 201      17.468  25.175  10.870  1.00 21.77     0.028 A 
HETATM   20  C18 1E9 A 201      17.633  25.888  12.065  1.00 19.95     0.033 A 
HETATM   21  C17 1E9 A 201      17.447  25.273  13.331  1.00 22.61     0.061 A 
HETATM   22  C16 1E9 A 201      17.074  23.898  13.384  1.00 23.52     0.130 A 
HETATM   23  C15 1E9 A 201      16.922  23.181  12.177  1.00 21.63     0.063 A 
BRANCH  21  24
HETATM   24  N2  1E9 A 201      17.610  26.022  14.446  1.00 23.64    -0.383 N 
HETATM   25  H2  1E9 A 201      17.462  25.556  15.341  1.00  0.00     0.160 HD
BRANCH  24  26
HETATM   26  C2  1E9 A 201      17.977  27.438  14.488  1.00 26.22     0.093 C 
BRANCH  26  27
HETATM   27  C1  1E9 A 201      18.976  27.747  15.623  1.00 31.62     0.056 C 
BRANCH  27  28
HETATM   28  C3  1E9 A 201      18.534  28.833  16.621  1.00 33.21     0.273 C 
BRANCH  28  29
HETATM   29  N1  1E9 A 201      18.694  28.354  17.997  1.00 35.97     0.080 N 
HETATM   30  C6  1E9 A 201      18.434  26.919  18.041  1.00 32.92     0.309 C 
HETATM   31  C7  1E9 A 201      20.037  28.628  18.514  1.00 34.94     0.309 C 
ENDBRANCH  28  29
ENDBRANCH  27  28
ENDBRANCH  26  27
BRANCH  26  32
HETATM   32  C4  1E9 A 201      16.722  28.344  14.606  1.00 25.82     0.104 C 
BRANCH  32  33
HETATM   33  S1  1E9 A 201      15.222  27.627  15.380  1.00 29.66    -0.128 SA
BRANCH  33  34
HETATM   34  C5  1E9 A 201      14.411  26.671  14.150  1.00 22.11     0.000 A 
HETATM   35  C8  1E9 A 201      14.086  27.249  12.909  1.00 22.15     0.018 A 
HETATM   36  C9  1E9 A 201      13.436  26.466  11.936  1.00 19.48     0.001 A 
HETATM   37  C10 1E9 A 201      13.129  25.115  12.203  1.00 17.77     0.000 A 
HETATM   38  C11 1E9 A 201      13.456  24.543  13.448  1.00 21.70     0.001 A 
HETATM   39  C12 1E9 A 201      14.105  25.322  14.426  1.00 20.86     0.018 A 
ENDBRANCH  33  34
ENDBRANCH  32  33
ENDBRANCH  26  32
ENDBRANCH  24  26
ENDBRANCH  21  24
BRANCH  22  40
HETATM   40  N7  1E9 A 201      16.869  23.153  14.644  1.00 25.21    -0.113 N 
HETATM   41  O5  1E9 A 201      16.575  21.965  14.570  1.00 29.38    -0.532 OA
HETATM   42  O6  1E9 A 201      17.044  23.731  15.708  1.00 22.75    -0.532 OA
ENDBRANCH  22  40
ENDBRANCH  15  18
ENDBRANCH  13  15
ENDBRANCH  10  13
BRANCH   1  43
HETATM   43  N4  1E9 A 201       8.914  24.556   8.936  1.00 20.11    -0.377 N 
HETATM   44  C33 1E9 A 201       8.292  25.880   8.713  1.00 21.29     0.153 C 
HETATM   45  C32 1E9 A 201       6.804  25.789   8.280  1.00 19.39     0.292 C 
HETATM   46  N3  1E9 A 201       6.076  25.011   9.293  1.00 22.93     0.095 N 
HETATM   47  C35 1E9 A 201       6.595  23.634   9.245  1.00 21.59     0.292 C 
HETATM   48  C34 1E9 A 201       8.056  23.685   9.750  1.00 20.66     0.153 C 
BRANCH  46  49
HETATM   49  C31 1E9 A 201       4.624  25.062   9.070  1.00 24.32     0.312 C 
BRANCH  49  50
HETATM   50  C22 1E9 A 201       4.028  23.664   9.221  1.00 23.38    -0.019 A 
HETATM   51  C21 1E9 A 201       3.694  23.128  10.503  1.00 19.94    -0.018 A 
HETATM   52  C20 1E9 A 201       3.162  21.816  10.578  1.00 21.54     0.013 A 
HETATM   53  C19 1E9 A 201       2.989  21.033   9.414  1.00 24.24     0.001 A 
HETATM   54  C24 1E9 A 201       3.347  21.564   8.153  1.00 26.65     0.001 A 
HETATM   55  C23 1E9 A 201       3.865  22.872   8.055  1.00 23.38     0.010 A 
BRANCH  51  56
HETATM   56  C25 1E9 A 201       3.811  23.824  11.803  1.00 21.83    -0.025 A 
HETATM   57  C26 1E9 A 201       3.348  25.153  11.975  1.00 22.31     0.014 A 
HETATM   58  C27 1E9 A 201       3.429  25.793  13.233  1.00 21.61     0.024 A 
HETATM   59  C28 1E9 A 201       3.967  25.102  14.336  1.00 21.37     0.034 A 
HETATM   60  C29 1E9 A 201       4.437  23.779  14.185  1.00 18.64     0.024 A 
HETATM   61 CL1  1E9 A 201       4.060  25.875  15.879  1.00 25.72    -0.084 Cl
HETATM   62  C30 1E9 A 201       4.351  23.140  12.923  1.00 20.46     0.014 A 
ENDBRANCH  51  56
ENDBRANCH  49  50
ENDBRANCH  46  49
ENDBRANCH   1  43
TORSDOF 16
