REMARK  Name = /mnt/d/Projects/genetic-smiles-optimizer/output_files/temp.pdb
REMARK  3 active torsions:
REMARK  status: ('A' for Active; 'I' for Inactive)
REMARK    1  A    between atoms: C1_1  and  C2_2
REMARK    2  A    between atoms: N1_4  and  C3_5
REMARK    3  A    between atoms: C6_8  and  O2_11
REMARK                            x       y       z     vdW  Elec       q    Type
REMARK                         _______ _______ _______ _____ _____    ______ ____
ROOT
ATOM      1  C3  UNL     1      -0.067  -0.250   0.232  0.00  0.00    +0.034 A 
ATOM      2  C4  UNL     1      -0.932  -1.284   0.625  0.00  0.00    +0.027 A 
ATOM      3  C5  UNL     1      -2.318  -1.126   0.524  0.00  0.00    +0.047 A 
ATOM      4  C6  UNL     1      -2.856   0.073   0.045  0.00  0.00    +0.117 A 
ATOM      5  C7  UNL     1      -2.001   1.118  -0.329  0.00  0.00    +0.047 A 
ATOM      6  C8  UNL     1      -0.614   0.961  -0.229  0.00  0.00    +0.027 A 
ENDROOT
BRANCH   1  10
ATOM      7  C1  UNL     1       3.779   0.072  -0.169  0.00  0.00    +0.109 C 
ATOM      8  C2  UNL     1       2.327   0.156  -0.510  0.00  0.00    +0.214 C 
ATOM      9  O1  UNL     1       1.979   0.669  -1.607  0.00  0.00    -0.276 OA
ATOM     10  N1  UNL     1       1.353  -0.431   0.367  0.00  0.00    -0.286 N 
ATOM     11  H4  UNL     1       1.697  -1.094   1.098  0.00  0.00    +0.155 HD
ENDBRANCH   1  10
BRANCH   4  12
ATOM     12  O2  UNL     1      -4.238   0.217  -0.051  0.00  0.00    -0.507 OA
ATOM     13  H9  UNL     1      -4.659   1.073  -0.393  0.00  0.00    +0.292 HD
ENDBRANCH   4  12
TORSDOF 2
