REMARK  Name = /mnt/d/Projects/genetic-smiles-optimizer/output_files/temp.pdb
REMARK  5 active torsions:
REMARK  status: ('A' for Active; 'I' for Inactive)
REMARK    1  A    between atoms: C1_1  and  C2_2
REMARK    2  A    between atoms: C2_2  and  O2_4
REMARK    3  A    between atoms: O2_4  and  C3_5
REMARK    4  A    between atoms: C8_10  and  C9_11
REMARK    5  A    between atoms: C9_11  and  O4_13
REMARK                            x       y       z     vdW  Elec       q    Type
REMARK                         _______ _______ _______ _____ _____    ______ ____
ROOT
ATOM      1  C3  UNL     1      14.297  27.219  14.050  0.00  0.00    +0.146 A 
ATOM      2  C4  UNL     1      14.624  26.090  14.827  0.00  0.00    +0.047 A 
ATOM      3  C5  UNL     1      14.371  24.803  14.353  0.00  0.00    +0.004 A 
ATOM      4  C6  UNL     1      13.778  24.623  13.105  0.00  0.00    +0.001 A 
ATOM      5  C7  UNL     1      13.428  25.730  12.330  0.00  0.00    +0.018 A 
ATOM      6  C8  UNL     1      13.675  27.038  12.790  0.00  0.00    +0.101 A 
ENDROOT
BRANCH   6   7
ATOM      7  C9  UNL     1      13.285  28.188  11.932  0.00  0.00    +0.340 C 
ATOM      8  O3  UNL     1      13.426  28.141  10.680  0.00  0.00    -0.245 OA
BRANCH   7   9
ATOM      9  O4  UNL     1      12.755  29.340  12.507  0.00  0.00    -0.477 OA
ATOM     10  H8  UNL     1      13.114  29.698  13.385  0.00  0.00    +0.295 HD
ENDBRANCH   7   9
ENDBRANCH   6   7
BRANCH   1  11
ATOM     11  O2  UNL     1      14.539  28.517  14.530  0.00  0.00    -0.425 OA
BRANCH  11  13
ATOM     12  C1  UNL     1      16.930  29.212  14.377  0.00  0.00    +0.136 C 
ATOM     13  C2  UNL     1      15.495  29.405  14.021  0.00  0.00    +0.309 C 
ATOM     14  O1  UNL     1      15.152  30.416  13.351  0.00  0.00    -0.251 OA
ENDBRANCH  11  13
ENDBRANCH   1  11
TORSDOF 4
