REMARK  Name = /mnt/d/Projects/genetic-smiles-optimizer/output_files/temp.pdb
REMARK  5 active torsions:
REMARK  status: ('A' for Active; 'I' for Inactive)
REMARK    1  A    between atoms: C1_1  and  C2_2
REMARK    2  A    between atoms: C2_2  and  O2_4
REMARK    3  A    between atoms: O2_4  and  C3_5
REMARK    4  A    between atoms: C8_10  and  C9_11
REMARK    5  A    between atoms: C9_11  and  O4_13
REMARK                            x       y       z     vdW  Elec       q    Type
REMARK                         _______ _______ _______ _____ _____    ______ ____
ROOT
ATOM      1  C3  UNL     1      14.302  27.223  14.052  0.00  0.00    +0.146 A 
ATOM      2  C4  UNL     1      14.623  26.094  14.831  0.00  0.00    +0.047 A 
ATOM      3  C5  UNL     1      14.356  24.807  14.363  0.00  0.00    +0.004 A 
ATOM      4  C6  UNL     1      13.757  24.628  13.119  0.00  0.00    +0.001 A 
ATOM      5  C7  UNL     1      13.413  25.735  12.341  0.00  0.00    +0.018 A 
ATOM      6  C8  UNL     1      13.673  27.043  12.795  0.00  0.00    +0.101 A 
ENDROOT
BRANCH   6   7
ATOM      7  C9  UNL     1      13.289  28.192  11.934  0.00  0.00    +0.340 C 
ATOM      8  O3  UNL     1      13.424  28.139  10.682  0.00  0.00    -0.245 OA
BRANCH   7   9
ATOM      9  O4  UNL     1      12.771  29.351  12.507  0.00  0.00    -0.477 OA
ATOM     10  H8  UNL     1      13.141  29.712  13.379  0.00  0.00    +0.295 HD
ENDBRANCH   7   9
ENDBRANCH   6   7
BRANCH   1  11
ATOM     11  O2  UNL     1      14.556  28.520  14.526  0.00  0.00    -0.425 OA
BRANCH  11  13
ATOM     12  C1  UNL     1      16.955  29.189  14.368  0.00  0.00    +0.136 C 
ATOM     13  C2  UNL     1      15.522  29.396  14.013  0.00  0.00    +0.309 C 
ATOM     14  O1  UNL     1      15.190  30.409  13.341  0.00  0.00    -0.251 OA
ENDBRANCH  11  13
ENDBRANCH   1  11
TORSDOF 4
