REMARK  Name = /mnt/d/Projects/genetic-smiles-optimizer/output_files/temp.pdb
REMARK  5 active torsions:
REMARK  status: ('A' for Active; 'I' for Inactive)
REMARK    1  A    between atoms: C1_1  and  C2_2
REMARK    2  A    between atoms: C2_2  and  O2_4
REMARK    3  A    between atoms: O2_4  and  C3_5
REMARK    4  A    between atoms: C8_10  and  C9_11
REMARK    5  A    between atoms: C9_11  and  O4_13
REMARK                            x       y       z     vdW  Elec       q    Type
REMARK                         _______ _______ _______ _____ _____    ______ ____
ROOT
ATOM      1  C3  UNL     1      14.311  27.226  14.050  0.00  0.00    +0.146 A 
ATOM      2  C4  UNL     1      14.638  26.098  14.829  0.00  0.00    +0.047 A 
ATOM      3  C5  UNL     1      14.382  24.810  14.358  0.00  0.00    +0.004 A 
ATOM      4  C6  UNL     1      13.787  24.629  13.111  0.00  0.00    +0.001 A 
ATOM      5  C7  UNL     1      13.436  25.734  12.335  0.00  0.00    +0.018 A 
ATOM      6  C8  UNL     1      13.686  27.043  12.791  0.00  0.00    +0.101 A 
ENDROOT
BRANCH   6   7
ATOM      7  C9  UNL     1      13.296  28.191  11.932  0.00  0.00    +0.340 C 
ATOM      8  O3  UNL     1      13.430  28.139  10.680  0.00  0.00    -0.245 OA
BRANCH   7   9
ATOM      9  O4  UNL     1      12.772  29.347  12.506  0.00  0.00    -0.477 OA
ATOM     10  H8  UNL     1      13.138  29.707  13.379  0.00  0.00    +0.295 HD
ENDBRANCH   7   9
ENDBRANCH   6   7
BRANCH   1  11
ATOM     11  O2  UNL     1      14.554  28.524  14.527  0.00  0.00    -0.425 OA
BRANCH  11  13
ATOM     12  C1  UNL     1      16.948  29.220  14.416  0.00  0.00    +0.136 C 
ATOM     13  C2  UNL     1      15.521  29.404  14.024  0.00  0.00    +0.309 C 
ATOM     14  O1  UNL     1      15.193  30.403  13.330  0.00  0.00    -0.251 OA
ENDBRANCH  11  13
ENDBRANCH   1  11
TORSDOF 4
