REMARK  Name = /mnt/d/Projects/genetic-smiles-optimizer/output_files/temp.pdb
REMARK  5 active torsions:
REMARK  status: ('A' for Active; 'I' for Inactive)
REMARK    1  A    between atoms: C1_1  and  C2_2
REMARK    2  A    between atoms: C2_2  and  O2_4
REMARK    3  A    between atoms: O2_4  and  C3_5
REMARK    4  A    between atoms: C8_10  and  C9_11
REMARK    5  A    between atoms: C9_11  and  O4_13
REMARK                            x       y       z     vdW  Elec       q    Type
REMARK                         _______ _______ _______ _____ _____    ______ ____
ROOT
ATOM      1  C3  UNL     1      14.302  27.229  14.060  0.00  0.00    +0.146 A 
ATOM      2  C4  UNL     1      14.628  26.103  14.841  0.00  0.00    +0.047 A 
ATOM      3  C5  UNL     1      14.371  24.814  14.372  0.00  0.00    +0.004 A 
ATOM      4  C6  UNL     1      13.777  24.631  13.126  0.00  0.00    +0.001 A 
ATOM      5  C7  UNL     1      13.427  25.735  12.348  0.00  0.00    +0.018 A 
ATOM      6  C8  UNL     1      13.678  27.045  12.801  0.00  0.00    +0.101 A 
ENDROOT
BRANCH   6   7
ATOM      7  C9  UNL     1      13.289  28.192  11.939  0.00  0.00    +0.340 C 
ATOM      8  O3  UNL     1      13.430  28.139  10.687  0.00  0.00    -0.245 OA
BRANCH   7   9
ATOM      9  O4  UNL     1      12.760  29.346  12.510  0.00  0.00    -0.477 OA
ATOM     10  H8  UNL     1      13.123  29.710  13.384  0.00  0.00    +0.295 HD
ENDBRANCH   7   9
ENDBRANCH   6   7
BRANCH   1  11
ATOM     11  O2  UNL     1      14.547  28.529  14.534  0.00  0.00    -0.425 OA
BRANCH  11  13
ATOM     12  C1  UNL     1      16.940  29.222  14.402  0.00  0.00    +0.136 C 
ATOM     13  C2  UNL     1      15.510  29.410  14.026  0.00  0.00    +0.309 C 
ATOM     14  O1  UNL     1      15.176  30.412  13.338  0.00  0.00    -0.251 OA
ENDBRANCH  11  13
ENDBRANCH   1  11
TORSDOF 4
