REMARK  Name = /mnt/d/Projects/genetic-smiles-optimizer/output_files/temp.pdb
REMARK  5 active torsions:
REMARK  status: ('A' for Active; 'I' for Inactive)
REMARK    1  A    between atoms: C1_1  and  C2_2
REMARK    2  A    between atoms: C2_2  and  O2_4
REMARK    3  A    between atoms: O2_4  and  C3_5
REMARK    4  A    between atoms: C8_10  and  C9_11
REMARK    5  A    between atoms: C9_11  and  O4_13
REMARK                            x       y       z     vdW  Elec       q    Type
REMARK                         _______ _______ _______ _____ _____    ______ ____
ROOT
ATOM      1  C3  UNL     1      -0.095   0.283   0.028  0.00  0.00    +0.146 A 
ATOM      2  C4  UNL     1      -0.664   1.507  -0.376  0.00  0.00    +0.047 A 
ATOM      3  C5  UNL     1       0.139   2.626  -0.597  0.00  0.00    +0.004 A 
ATOM      4  C6  UNL     1       1.517   2.544  -0.408  0.00  0.00    +0.001 A 
ATOM      5  C7  UNL     1       2.096   1.346   0.012  0.00  0.00    +0.018 A 
ATOM      6  C8  UNL     1       1.304   0.204   0.241  0.00  0.00    +0.101 A 
ENDROOT
BRANCH   6   7
ATOM      7  C9  UNL     1       1.963  -1.051   0.688  0.00  0.00    +0.340 C 
ATOM      8  O3  UNL     1       1.294  -2.102   0.881  0.00  0.00    -0.245 OA
BRANCH   7   9
ATOM      9  O4  UNL     1       3.339  -1.080   0.900  0.00  0.00    -0.477 OA
ATOM     10  H8  UNL     1       3.802  -1.929   1.204  0.00  0.00    +0.295 HD
ENDBRANCH   7   9
ENDBRANCH   6   7
BRANCH   1  11
ATOM     11  O2  UNL     1      -0.902  -0.842   0.265  0.00  0.00    -0.425 OA
BRANCH  11  13
ATOM     12  C1  UNL     1      -2.980  -2.215   0.123  0.00  0.00    +0.136 C 
ATOM     13  C2  UNL     1      -2.093  -1.142  -0.409  0.00  0.00    +0.309 C 
ATOM     14  O1  UNL     1      -2.376  -0.590  -1.506  0.00  0.00    -0.251 OA
ENDBRANCH  11  13
ENDBRANCH   1  11
TORSDOF 4
