REMARK  Name = /mnt/d/Projects/genetic-smiles-optimizer/output_files/temp.pdb
REMARK  5 active torsions:
REMARK  status: ('A' for Active; 'I' for Inactive)
REMARK    1  A    between atoms: C1_1  and  C2_2
REMARK    2  A    between atoms: C2_2  and  O2_4
REMARK    3  A    between atoms: O2_4  and  C3_5
REMARK    4  A    between atoms: C8_10  and  C9_11
REMARK    5  A    between atoms: C9_11  and  O4_13
REMARK                            x       y       z     vdW  Elec       q    Type
REMARK                         _______ _______ _______ _____ _____    ______ ____
ROOT
ATOM      1  C3  UNL     1      13.450  26.353  12.783  0.00  0.00    +0.146 A 
ATOM      2  C4  UNL     1      13.692  25.055  13.274  0.00  0.00    +0.047 A 
ATOM      3  C5  UNL     1      14.447  24.862  14.432  0.00  0.00    +0.004 A 
ATOM      4  C6  UNL     1      14.978  25.957  15.109  0.00  0.00    +0.001 A 
ATOM      5  C7  UNL     1      14.766  27.249  14.626  0.00  0.00    +0.018 A 
ATOM      6  C8  UNL     1      14.008  27.467  13.460  0.00  0.00    +0.101 A 
ENDROOT
BRANCH   6   7
ATOM      7  C9  UNL     1      13.808  28.860  12.981  0.00  0.00    +0.340 C 
ATOM      8  O3  UNL     1      14.624  29.773  13.281  0.00  0.00    -0.245 OA
BRANCH   7   9
ATOM      9  O4  UNL     1      12.706  29.175  12.190  0.00  0.00    -0.477 OA
ATOM     10  H8  UNL     1      12.374  28.533  11.479  0.00  0.00    +0.295 HD
ENDBRANCH   7   9
ENDBRANCH   6   7
BRANCH   1  11
ATOM     11  O2  UNL     1      12.703  26.551  11.611  0.00  0.00    -0.425 OA
BRANCH  11  13
ATOM     12  C1  UNL     1      13.484  25.424   9.527  0.00  0.00    +0.136 C 
ATOM     13  C2  UNL     1      13.234  26.661  10.319  0.00  0.00    +0.309 C 
ATOM     14  O1  UNL     1      13.595  27.777   9.857  0.00  0.00    -0.251 OA
ENDBRANCH  11  13
ENDBRANCH   1  11
TORSDOF 4
