REMARK  Name = /mnt/d/Projects/genetic-smiles-optimizer/output_files/temp.pdb
REMARK  5 active torsions:
REMARK  status: ('A' for Active; 'I' for Inactive)
REMARK    1  A    between atoms: C1_1  and  C2_2
REMARK    2  A    between atoms: C2_2  and  O2_4
REMARK    3  A    between atoms: O2_4  and  C3_5
REMARK    4  A    between atoms: C8_10  and  C9_11
REMARK    5  A    between atoms: C9_11  and  O4_13
REMARK                            x       y       z     vdW  Elec       q    Type
REMARK                         _______ _______ _______ _____ _____    ______ ____
ROOT
ATOM      1  C3  UNL     1      14.305  27.229  14.047  0.00  0.00    +0.146 A 
ATOM      2  C4  UNL     1      14.630  26.103  14.829  0.00  0.00    +0.047 A 
ATOM      3  C5  UNL     1      14.371  24.814  14.362  0.00  0.00    +0.004 A 
ATOM      4  C6  UNL     1      13.776  24.630  13.115  0.00  0.00    +0.001 A 
ATOM      5  C7  UNL     1      13.429  25.734  12.336  0.00  0.00    +0.018 A 
ATOM      6  C8  UNL     1      13.681  27.043  12.788  0.00  0.00    +0.101 A 
ENDROOT
BRANCH   6   7
ATOM      7  C9  UNL     1      13.293  28.190  11.925  0.00  0.00    +0.340 C 
ATOM      8  O3  UNL     1      13.431  28.135  10.673  0.00  0.00    -0.245 OA
BRANCH   7   9
ATOM      9  O4  UNL     1      12.769  29.347  12.494  0.00  0.00    -0.477 OA
ATOM     10  H8  UNL     1      13.130  29.707  13.370  0.00  0.00    +0.295 HD
ENDBRANCH   7   9
ENDBRANCH   6   7
BRANCH   1  11
ATOM     11  O2  UNL     1      14.551  28.528  14.520  0.00  0.00    -0.425 OA
BRANCH  11  13
ATOM     12  C1  UNL     1      16.945  29.217  14.381  0.00  0.00    +0.136 C 
ATOM     13  C2  UNL     1      15.514  29.408  14.009  0.00  0.00    +0.309 C 
ATOM     14  O1  UNL     1      15.180  30.411  13.323  0.00  0.00    -0.251 OA
ENDBRANCH  11  13
ENDBRANCH   1  11
TORSDOF 4
