REMARK  Name = /mnt/d/Projects/genetic-smiles-optimizer/output_files/temp.pdb
REMARK  5 active torsions:
REMARK  status: ('A' for Active; 'I' for Inactive)
REMARK    1  A    between atoms: C1_1  and  C2_2
REMARK    2  A    between atoms: C2_2  and  O2_4
REMARK    3  A    between atoms: O2_4  and  C3_5
REMARK    4  A    between atoms: C8_10  and  C9_11
REMARK    5  A    between atoms: C9_11  and  O4_13
REMARK                            x       y       z     vdW  Elec       q    Type
REMARK                         _______ _______ _______ _____ _____    ______ ____
ROOT
ATOM      1  C3  UNL     1      13.430  26.301  12.753  0.00  0.00    +0.146 A 
ATOM      2  C4  UNL     1      13.659  25.005  13.259  0.00  0.00    +0.047 A 
ATOM      3  C5  UNL     1      14.410  24.817  14.419  0.00  0.00    +0.004 A 
ATOM      4  C6  UNL     1      14.953  25.914  15.084  0.00  0.00    +0.001 A 
ATOM      5  C7  UNL     1      14.755  27.203  14.587  0.00  0.00    +0.018 A 
ATOM      6  C8  UNL     1      14.000  27.416  13.417  0.00  0.00    +0.101 A 
ENDROOT
BRANCH   6   7
ATOM      7  C9  UNL     1      13.815  28.805  12.923  0.00  0.00    +0.340 C 
ATOM      8  O3  UNL     1      14.678  29.695  13.150  0.00  0.00    -0.245 OA
BRANCH   7   9
ATOM      9  O4  UNL     1      12.676  29.142  12.197  0.00  0.00    -0.477 OA
ATOM     10  H8  UNL     1      12.332  28.540  11.457  0.00  0.00    +0.295 HD
ENDBRANCH   7   9
ENDBRANCH   6   7
BRANCH   1  11
ATOM     11  O2  UNL     1      12.686  26.493  11.578  0.00  0.00    -0.425 OA
BRANCH  11  13
ATOM     12  C1  UNL     1      13.491  25.420   9.475  0.00  0.00    +0.136 C 
ATOM     13  C2  UNL     1      13.223  26.637  10.292  0.00  0.00    +0.309 C 
ATOM     14  O1  UNL     1      13.574  27.766   9.857  0.00  0.00    -0.251 OA
ENDBRANCH  11  13
ENDBRANCH   1  11
TORSDOF 4
