REMARK  Name = /mnt/d/Projects/genetic-smiles-optimizer/output_files/temp.pdb
REMARK  5 active torsions:
REMARK  status: ('A' for Active; 'I' for Inactive)
REMARK    1  A    between atoms: C1_1  and  C2_2
REMARK    2  A    between atoms: C2_2  and  O2_4
REMARK    3  A    between atoms: O2_4  and  C3_5
REMARK    4  A    between atoms: C8_10  and  C9_11
REMARK    5  A    between atoms: C9_11  and  O4_13
REMARK                            x       y       z     vdW  Elec       q    Type
REMARK                         _______ _______ _______ _____ _____    ______ ____
ROOT
ATOM      1  C3  UNL     1      14.290  27.224  14.051  0.00  0.00    +0.146 A 
ATOM      2  C4  UNL     1      14.611  26.098  14.834  0.00  0.00    +0.047 A 
ATOM      3  C5  UNL     1      14.353  24.809  14.366  0.00  0.00    +0.004 A 
ATOM      4  C6  UNL     1      13.763  24.626  13.117  0.00  0.00    +0.001 A 
ATOM      5  C7  UNL     1      13.419  25.730  12.336  0.00  0.00    +0.018 A 
ATOM      6  C8  UNL     1      13.670  27.039  12.789  0.00  0.00    +0.101 A 
ENDROOT
BRANCH   6   7
ATOM      7  C9  UNL     1      13.287  28.186  11.925  0.00  0.00    +0.340 C 
ATOM      8  O3  UNL     1      13.428  28.130  10.673  0.00  0.00    -0.245 OA
BRANCH   7   9
ATOM      9  O4  UNL     1      12.763  29.344  12.492  0.00  0.00    -0.477 OA
ATOM     10  H8  UNL     1      13.118  29.701  13.373  0.00  0.00    +0.295 HD
ENDBRANCH   7   9
ENDBRANCH   6   7
BRANCH   1  11
ATOM     11  O2  UNL     1      14.534  28.524  14.525  0.00  0.00    -0.425 OA
BRANCH  11  13
ATOM     12  C1  UNL     1      16.927  29.219  14.405  0.00  0.00    +0.136 C 
ATOM     13  C2  UNL     1      15.500  29.403  14.018  0.00  0.00    +0.309 C 
ATOM     14  O1  UNL     1      15.169  30.401  13.323  0.00  0.00    -0.251 OA
ENDBRANCH  11  13
ENDBRANCH   1  11
TORSDOF 4
