REMARK  Name = /mnt/d/Projects/genetic-smiles-optimizer/output_files/temp.pdb
REMARK  5 active torsions:
REMARK  status: ('A' for Active; 'I' for Inactive)
REMARK    1  A    between atoms: C1_1  and  C2_2
REMARK    2  A    between atoms: C2_2  and  O2_4
REMARK    3  A    between atoms: O2_4  and  C3_5
REMARK    4  A    between atoms: C8_10  and  C9_11
REMARK    5  A    between atoms: C9_11  and  O4_13
REMARK                            x       y       z     vdW  Elec       q    Type
REMARK                         _______ _______ _______ _____ _____    ______ ____
ROOT
ATOM      1  C3  UNL     1      14.304  27.224  14.056  0.00  0.00    +0.146 A 
ATOM      2  C4  UNL     1      14.631  26.097  14.835  0.00  0.00    +0.047 A 
ATOM      3  C5  UNL     1      14.373  24.809  14.365  0.00  0.00    +0.004 A 
ATOM      4  C6  UNL     1      13.776  24.628  13.119  0.00  0.00    +0.001 A 
ATOM      5  C7  UNL     1      13.427  25.733  12.343  0.00  0.00    +0.018 A 
ATOM      6  C8  UNL     1      13.678  27.042  12.798  0.00  0.00    +0.101 A 
ENDROOT
BRANCH   6   7
ATOM      7  C9  UNL     1      13.289  28.190  11.938  0.00  0.00    +0.340 C 
ATOM      8  O3  UNL     1      13.428  28.139  10.686  0.00  0.00    -0.245 OA
BRANCH   7   9
ATOM      9  O4  UNL     1      12.761  29.344  12.511  0.00  0.00    -0.477 OA
ATOM     10  H8  UNL     1      13.124  29.705  13.386  0.00  0.00    +0.295 HD
ENDBRANCH   7   9
ENDBRANCH   6   7
BRANCH   1  11
ATOM     11  O2  UNL     1      14.550  28.523  14.532  0.00  0.00    -0.425 OA
BRANCH  11  13
ATOM     12  C1  UNL     1      16.944  29.204  14.374  0.00  0.00    +0.136 C 
ATOM     13  C2  UNL     1      15.510  29.406  14.021  0.00  0.00    +0.309 C 
ATOM     14  O1  UNL     1      15.172  30.419  13.353  0.00  0.00    -0.251 OA
ENDBRANCH  11  13
ENDBRANCH   1  11
TORSDOF 4
