REMARK  Name = /mnt/d/Projects/genetic-smiles-optimizer/output_files/temp.pdb
REMARK  5 active torsions:
REMARK  status: ('A' for Active; 'I' for Inactive)
REMARK    1  A    between atoms: C1_1  and  C2_2
REMARK    2  A    between atoms: C2_2  and  O2_4
REMARK    3  A    between atoms: O2_4  and  C3_5
REMARK    4  A    between atoms: C8_10  and  C9_11
REMARK    5  A    between atoms: C9_11  and  O4_13
REMARK                            x       y       z     vdW  Elec       q    Type
REMARK                         _______ _______ _______ _____ _____    ______ ____
ROOT
ATOM      1  C3  UNL     1       3.666  25.245  12.356  0.00  0.00    +0.146 A 
ATOM      2  C4  UNL     1       3.177  26.367  13.055  0.00  0.00    +0.047 A 
ATOM      3  C5  UNL     1       3.330  26.465  14.438  0.00  0.00    +0.004 A 
ATOM      4  C6  UNL     1       3.961  25.443  15.144  0.00  0.00    +0.001 A 
ATOM      5  C7  UNL     1       4.433  24.315  14.472  0.00  0.00    +0.018 A 
ATOM      6  C8  UNL     1       4.289  24.196  13.075  0.00  0.00    +0.101 A 
ENDROOT
BRANCH   6   7
ATOM      7  C9  UNL     1       4.807  22.977  12.400  0.00  0.00    +0.340 C 
ATOM      8  O3  UNL     1       4.699  21.842  12.938  0.00  0.00    -0.245 OA
BRANCH   7   9
ATOM      9  O4  UNL     1       5.421  23.076  11.155  0.00  0.00    -0.477 OA
ATOM     10  H8  UNL     1       5.253  23.874  10.552  0.00  0.00    +0.295 HD
ENDBRANCH   7   9
ENDBRANCH   6   7
BRANCH   1  11
ATOM     11  O2  UNL     1       3.502  25.137  10.965  0.00  0.00    -0.425 OA
BRANCH  11  13
ATOM     12  C1  UNL     1       3.831  25.891   8.610  0.00  0.00    +0.136 C 
ATOM     13  C2  UNL     1       4.335  25.721  10.002  0.00  0.00    +0.309 C 
ATOM     14  O1  UNL     1       5.532  26.012  10.269  0.00  0.00    -0.251 OA
ENDBRANCH  11  13
ENDBRANCH   1  11
TORSDOF 4
