REMARK  Name = /mnt/d/Projects/genetic-smiles-optimizer/output_files/temp.pdb
REMARK  5 active torsions:
REMARK  status: ('A' for Active; 'I' for Inactive)
REMARK    1  A    between atoms: C1_1  and  C2_2
REMARK    2  A    between atoms: C2_2  and  O2_4
REMARK    3  A    between atoms: O2_4  and  C3_5
REMARK    4  A    between atoms: C8_10  and  C9_11
REMARK    5  A    between atoms: C9_11  and  O4_13
REMARK                            x       y       z     vdW  Elec       q    Type
REMARK                         _______ _______ _______ _____ _____    ______ ____
ROOT
ATOM      1  C3  UNL     1       4.129  24.361  13.117  0.00  0.00    +0.146 A 
ATOM      2  C4  UNL     1       3.626  24.032  14.392  0.00  0.00    +0.047 A 
ATOM      3  C5  UNL     1       3.031  25.005  15.194  0.00  0.00    +0.004 A 
ATOM      4  C6  UNL     1       2.939  26.320  14.743  0.00  0.00    +0.001 A 
ATOM      5  C7  UNL     1       3.450  26.669  13.493  0.00  0.00    +0.018 A 
ATOM      6  C8  UNL     1       4.054  25.702  12.666  0.00  0.00    +0.101 A 
ENDROOT
BRANCH   6   7
ATOM      7  C9  UNL     1       4.585  26.118  11.341  0.00  0.00    +0.340 C 
ATOM      8  O3  UNL     1       5.164  27.228  11.194  0.00  0.00    -0.245 OA
BRANCH   7   9
ATOM      9  O4  UNL     1       4.448  25.279  10.239  0.00  0.00    -0.477 OA
ATOM     10  H8  UNL     1       4.482  24.271  10.344  0.00  0.00    +0.295 HD
ENDBRANCH   7   9
ENDBRANCH   6   7
BRANCH   1  11
ATOM     11  O2  UNL     1       4.741  23.386  12.312  0.00  0.00    -0.425 OA
BRANCH  11  13
ATOM     12  C1  UNL     1       3.805  21.080  12.478  0.00  0.00    +0.136 C 
ATOM     13  C2  UNL     1       4.083  22.316  11.693  0.00  0.00    +0.309 C 
ATOM     14  O1  UNL     1       3.812  22.343  10.462  0.00  0.00    -0.251 OA
ENDBRANCH  11  13
ENDBRANCH   1  11
TORSDOF 4
