REMARK  Name = /mnt/d/Projects/genetic-smiles-optimizer/output_files/temp.pdb
REMARK  5 active torsions:
REMARK  status: ('A' for Active; 'I' for Inactive)
REMARK    1  A    between atoms: C1_1  and  C2_2
REMARK    2  A    between atoms: C2_2  and  O2_4
REMARK    3  A    between atoms: O2_4  and  C3_5
REMARK    4  A    between atoms: C8_10  and  C9_11
REMARK    5  A    between atoms: C9_11  and  O4_13
REMARK                            x       y       z     vdW  Elec       q    Type
REMARK                         _______ _______ _______ _____ _____    ______ ____
ROOT
ATOM      1  C3  UNL     1      13.429  26.312  12.748  0.00  0.00    +0.146 A 
ATOM      2  C4  UNL     1      13.653  25.019  13.262  0.00  0.00    +0.047 A 
ATOM      3  C5  UNL     1      14.396  24.835  14.428  0.00  0.00    +0.004 A 
ATOM      4  C6  UNL     1      14.935  25.935  15.092  0.00  0.00    +0.001 A 
ATOM      5  C7  UNL     1      14.742  27.221  14.587  0.00  0.00    +0.018 A 
ATOM      6  C8  UNL     1      13.995  27.429  13.411  0.00  0.00    +0.101 A 
ENDROOT
BRANCH   6   7
ATOM      7  C9  UNL     1      13.815  28.817  12.909  0.00  0.00    +0.340 C 
ATOM      8  O3  UNL     1      14.685  29.703  13.126  0.00  0.00    -0.245 OA
BRANCH   7   9
ATOM      9  O4  UNL     1      12.673  29.155  12.187  0.00  0.00    -0.477 OA
ATOM     10  H8  UNL     1      12.349  28.576  11.421  0.00  0.00    +0.295 HD
ENDBRANCH   7   9
ENDBRANCH   6   7
BRANCH   1  11
ATOM     11  O2  UNL     1      12.694  26.499  11.567  0.00  0.00    -0.425 OA
BRANCH  11  13
ATOM     12  C1  UNL     1      13.495  25.422   9.464  0.00  0.00    +0.136 C 
ATOM     13  C2  UNL     1      13.241  26.640  10.285  0.00  0.00    +0.309 C 
ATOM     14  O1  UNL     1      13.611  27.765   9.855  0.00  0.00    -0.251 OA
ENDBRANCH  11  13
ENDBRANCH   1  11
TORSDOF 4
