REMARK  Name = /mnt/d/Projects/genetic-smiles-optimizer/output_files/temp.pdb
REMARK  5 active torsions:
REMARK  status: ('A' for Active; 'I' for Inactive)
REMARK    1  A    between atoms: C1_1  and  C2_2
REMARK    2  A    between atoms: C2_2  and  O2_4
REMARK    3  A    between atoms: O2_4  and  C3_5
REMARK    4  A    between atoms: C8_10  and  C9_11
REMARK    5  A    between atoms: C9_11  and  O4_13
REMARK                            x       y       z     vdW  Elec       q    Type
REMARK                         _______ _______ _______ _____ _____    ______ ____
ROOT
ATOM      1  C3  UNL     1      14.295  27.220  14.050  0.00  0.00    +0.146 A 
ATOM      2  C4  UNL     1      14.617  26.093  14.831  0.00  0.00    +0.047 A 
ATOM      3  C5  UNL     1      14.358  24.805  14.361  0.00  0.00    +0.004 A 
ATOM      4  C6  UNL     1      13.765  24.624  13.114  0.00  0.00    +0.001 A 
ATOM      5  C7  UNL     1      13.420  25.729  12.335  0.00  0.00    +0.018 A 
ATOM      6  C8  UNL     1      13.672  27.038  12.790  0.00  0.00    +0.101 A 
ENDROOT
BRANCH   6   7
ATOM      7  C9  UNL     1      13.288  28.186  11.928  0.00  0.00    +0.340 C 
ATOM      8  O3  UNL     1      13.428  28.133  10.676  0.00  0.00    -0.245 OA
BRANCH   7   9
ATOM      9  O4  UNL     1      12.764  29.343  12.498  0.00  0.00    -0.477 OA
ATOM     10  H8  UNL     1      13.107  29.688  13.388  0.00  0.00    +0.295 HD
ENDBRANCH   7   9
ENDBRANCH   6   7
BRANCH   1  11
ATOM     11  O2  UNL     1      14.541  28.519  14.526  0.00  0.00    -0.425 OA
BRANCH  11  13
ATOM     12  C1  UNL     1      16.934  29.200  14.337  0.00  0.00    +0.136 C 
ATOM     13  C2  UNL     1      15.495  29.405  14.007  0.00  0.00    +0.309 C 
ATOM     14  O1  UNL     1      15.147  30.423  13.352  0.00  0.00    -0.251 OA
ENDBRANCH  11  13
ENDBRANCH   1  11
TORSDOF 4
