REMARK  Name = /mnt/d/Projects/genetic-smiles-optimizer/output_files/temp.pdb
REMARK  5 active torsions:
REMARK  status: ('A' for Active; 'I' for Inactive)
REMARK    1  A    between atoms: C1_1  and  C2_2
REMARK    2  A    between atoms: C2_2  and  O2_4
REMARK    3  A    between atoms: O2_4  and  C3_5
REMARK    4  A    between atoms: C8_10  and  C9_11
REMARK    5  A    between atoms: C9_11  and  O4_13
REMARK                            x       y       z     vdW  Elec       q    Type
REMARK                         _______ _______ _______ _____ _____    ______ ____
ROOT
ATOM      1  C3  UNL     1      14.311  27.227  14.071  0.00  0.00    +0.146 A 
ATOM      2  C4  UNL     1      14.639  26.100  14.850  0.00  0.00    +0.047 A 
ATOM      3  C5  UNL     1      14.379  24.812  14.382  0.00  0.00    +0.004 A 
ATOM      4  C6  UNL     1      13.780  24.630  13.137  0.00  0.00    +0.001 A 
ATOM      5  C7  UNL     1      13.429  25.735  12.361  0.00  0.00    +0.018 A 
ATOM      6  C8  UNL     1      13.682  27.044  12.814  0.00  0.00    +0.101 A 
ENDROOT
BRANCH   6   7
ATOM      7  C9  UNL     1      13.291  28.192  11.955  0.00  0.00    +0.340 C 
ATOM      8  O3  UNL     1      13.429  28.141  10.702  0.00  0.00    -0.245 OA
BRANCH   7   9
ATOM      9  O4  UNL     1      12.762  29.346  12.528  0.00  0.00    -0.477 OA
ATOM     10  H8  UNL     1      13.128  29.709  13.401  0.00  0.00    +0.295 HD
ENDBRANCH   7   9
ENDBRANCH   6   7
BRANCH   1  11
ATOM     11  O2  UNL     1      14.558  28.526  14.546  0.00  0.00    -0.425 OA
BRANCH  11  13
ATOM     12  C1  UNL     1      16.952  29.203  14.366  0.00  0.00    +0.136 C 
ATOM     13  C2  UNL     1      15.515  29.409  14.029  0.00  0.00    +0.309 C 
ATOM     14  O1  UNL     1      15.173  30.427  13.370  0.00  0.00    -0.251 OA
ENDBRANCH  11  13
ENDBRANCH   1  11
TORSDOF 4
