REMARK  Name = /mnt/d/Projects/genetic-smiles-optimizer/output_files/temp.pdb
REMARK  5 active torsions:
REMARK  status: ('A' for Active; 'I' for Inactive)
REMARK    1  A    between atoms: C1_1  and  C2_2
REMARK    2  A    between atoms: C2_2  and  O2_4
REMARK    3  A    between atoms: O2_4  and  C3_5
REMARK    4  A    between atoms: C8_10  and  C9_11
REMARK    5  A    between atoms: C9_11  and  O4_13
REMARK                            x       y       z     vdW  Elec       q    Type
REMARK                         _______ _______ _______ _____ _____    ______ ____
ROOT
ATOM      1  C3  UNL     1      14.310  27.228  14.053  0.00  0.00    +0.146 A 
ATOM      2  C4  UNL     1      14.641  26.101  14.831  0.00  0.00    +0.047 A 
ATOM      3  C5  UNL     1      14.386  24.812  14.363  0.00  0.00    +0.004 A 
ATOM      4  C6  UNL     1      13.787  24.629  13.118  0.00  0.00    +0.001 A 
ATOM      5  C7  UNL     1      13.433  25.733  12.342  0.00  0.00    +0.018 A 
ATOM      6  C8  UNL     1      13.682  27.043  12.796  0.00  0.00    +0.101 A 
ENDROOT
BRANCH   6   7
ATOM      7  C9  UNL     1      13.287  28.189  11.936  0.00  0.00    +0.340 C 
ATOM      8  O3  UNL     1      13.422  28.138  10.683  0.00  0.00    -0.245 OA
BRANCH   7   9
ATOM      9  O4  UNL     1      12.760  29.343  12.510  0.00  0.00    -0.477 OA
ATOM     10  H8  UNL     1      13.125  29.705  13.383  0.00  0.00    +0.295 HD
ENDBRANCH   7   9
ENDBRANCH   6   7
BRANCH   1  11
ATOM     11  O2  UNL     1      14.553  28.527  14.527  0.00  0.00    -0.425 OA
BRANCH  11  13
ATOM     12  C1  UNL     1      16.945  29.213  14.353  0.00  0.00    +0.136 C 
ATOM     13  C2  UNL     1      15.508  29.413  14.012  0.00  0.00    +0.309 C 
ATOM     14  O1  UNL     1      15.163  30.428  13.350  0.00  0.00    -0.251 OA
ENDBRANCH  11  13
ENDBRANCH   1  11
TORSDOF 4
