REMARK  Name = /mnt/d/Projects/genetic-smiles-optimizer/output_files/temp.pdb
REMARK  5 active torsions:
REMARK  status: ('A' for Active; 'I' for Inactive)
REMARK    1  A    between atoms: C1_1  and  C2_2
REMARK    2  A    between atoms: C2_2  and  O2_4
REMARK    3  A    between atoms: O2_4  and  C3_5
REMARK    4  A    between atoms: C8_10  and  C9_11
REMARK    5  A    between atoms: C9_11  and  O4_13
REMARK                            x       y       z     vdW  Elec       q    Type
REMARK                         _______ _______ _______ _____ _____    ______ ____
ROOT
ATOM      1  C3  UNL     1       3.435  24.840  13.038  0.00  0.00    +0.146 A 
ATOM      2  C4  UNL     1       2.971  24.155  14.179  0.00  0.00    +0.047 A 
ATOM      3  C5  UNL     1       2.971  24.775  15.429  0.00  0.00    +0.004 A 
ATOM      4  C6  UNL     1       3.442  26.080  15.560  0.00  0.00    +0.001 A 
ATOM      5  C7  UNL     1       3.924  26.766  14.445  0.00  0.00    +0.018 A 
ATOM      6  C8  UNL     1       3.934  26.159  13.174  0.00  0.00    +0.101 A 
ENDROOT
BRANCH   6   7
ATOM      7  C9  UNL     1       4.457  26.927  12.014  0.00  0.00    +0.340 C 
ATOM      8  O3  UNL     1       5.165  27.956  12.184  0.00  0.00    -0.245 OA
BRANCH   7   9
ATOM      9  O4  UNL     1       4.167  26.515  10.716  0.00  0.00    -0.477 OA
ATOM     10  H8  UNL     1       4.391  25.577  10.405  0.00  0.00    +0.295 HD
ENDBRANCH   7   9
ENDBRANCH   6   7
BRANCH   1  11
ATOM     11  O2  UNL     1       3.450  24.214  11.780  0.00  0.00    -0.425 OA
BRANCH  11  13
ATOM     12  C1  UNL     1       4.296  21.872  11.627  0.00  0.00    +0.136 C 
ATOM     13  C2  UNL     1       4.435  23.326  11.328  0.00  0.00    +0.309 C 
ATOM     14  O1  UNL     1       5.479  23.747  10.763  0.00  0.00    -0.251 OA
ENDBRANCH  11  13
ENDBRANCH   1  11
TORSDOF 4
