REMARK  Name = /mnt/d/Projects/genetic-smiles-optimizer/output_files/temp.pdb
REMARK  5 active torsions:
REMARK  status: ('A' for Active; 'I' for Inactive)
REMARK    1  A    between atoms: C1_1  and  C2_2
REMARK    2  A    between atoms: C2_2  and  O2_4
REMARK    3  A    between atoms: O2_4  and  C3_5
REMARK    4  A    between atoms: C8_10  and  C9_11
REMARK    5  A    between atoms: C9_11  and  O4_13
REMARK                            x       y       z     vdW  Elec       q    Type
REMARK                         _______ _______ _______ _____ _____    ______ ____
ROOT
ATOM      1  C3  UNL     1      14.311  27.224  14.058  0.00  0.00    +0.146 A 
ATOM      2  C4  UNL     1      14.637  26.094  14.835  0.00  0.00    +0.047 A 
ATOM      3  C5  UNL     1      14.380  24.808  14.362  0.00  0.00    +0.004 A 
ATOM      4  C6  UNL     1      13.787  24.629  13.114  0.00  0.00    +0.001 A 
ATOM      5  C7  UNL     1      13.438  25.736  12.339  0.00  0.00    +0.018 A 
ATOM      6  C8  UNL     1      13.688  27.044  12.798  0.00  0.00    +0.101 A 
ENDROOT
BRANCH   6   7
ATOM      7  C9  UNL     1      13.300  28.194  11.940  0.00  0.00    +0.340 C 
ATOM      8  O3  UNL     1      13.437  28.144  10.687  0.00  0.00    -0.245 OA
BRANCH   7   9
ATOM      9  O4  UNL     1      12.776  29.349  12.515  0.00  0.00    -0.477 OA
ATOM     10  H8  UNL     1      13.140  29.707  13.390  0.00  0.00    +0.295 HD
ENDBRANCH   7   9
ENDBRANCH   6   7
BRANCH   1  11
ATOM     11  O2  UNL     1      14.555  28.521  14.537  0.00  0.00    -0.425 OA
BRANCH  11  13
ATOM     12  C1  UNL     1      16.950  29.205  14.394  0.00  0.00    +0.136 C 
ATOM     13  C2  UNL     1      15.518  29.405  14.032  0.00  0.00    +0.309 C 
ATOM     14  O1  UNL     1      15.183  30.417  13.361  0.00  0.00    -0.251 OA
ENDBRANCH  11  13
ENDBRANCH   1  11
TORSDOF 4
