REMARK  Name = /mnt/d/Projects/genetic-smiles-optimizer/output_files/temp.pdb
REMARK  5 active torsions:
REMARK  status: ('A' for Active; 'I' for Inactive)
REMARK    1  A    between atoms: C1_1  and  C2_2
REMARK    2  A    between atoms: C2_2  and  O2_4
REMARK    3  A    between atoms: O2_4  and  C3_5
REMARK    4  A    between atoms: C8_10  and  C9_11
REMARK    5  A    between atoms: C9_11  and  O4_13
REMARK                            x       y       z     vdW  Elec       q    Type
REMARK                         _______ _______ _______ _____ _____    ______ ____
ROOT
ATOM      1  C3  UNL     1       4.319  24.467  13.284  0.00  0.00    +0.146 A 
ATOM      2  C4  UNL     1       4.103  24.416  14.676  0.00  0.00    +0.047 A 
ATOM      3  C5  UNL     1       3.415  25.440  15.326  0.00  0.00    +0.004 A 
ATOM      4  C6  UNL     1       2.943  26.533  14.602  0.00  0.00    +0.001 A 
ATOM      5  C7  UNL     1       3.165  26.611  13.227  0.00  0.00    +0.018 A 
ATOM      6  C8  UNL     1       3.858  25.588  12.550  0.00  0.00    +0.101 A 
ENDROOT
BRANCH   6   7
ATOM      7  C9  UNL     1       4.072  25.712  11.084  0.00  0.00    +0.340 C 
ATOM      8  O3  UNL     1       3.214  26.270  10.348  0.00  0.00    -0.245 OA
BRANCH   7   9
ATOM      9  O4  UNL     1       5.234  25.209  10.504  0.00  0.00    -0.477 OA
ATOM     10  H8  UNL     1       5.546  24.264  10.697  0.00  0.00    +0.295 HD
ENDBRANCH   7   9
ENDBRANCH   6   7
BRANCH   1  11
ATOM     11  O2  UNL     1       5.024  23.444  12.628  0.00  0.00    -0.425 OA
BRANCH  11  13
ATOM     12  C1  UNL     1       4.057  21.145  12.572  0.00  0.00    +0.136 C 
ATOM     13  C2  UNL     1       4.444  22.409  11.883  0.00  0.00    +0.309 C 
ATOM     14  O1  UNL     1       4.335  22.491  10.630  0.00  0.00    -0.251 OA
ENDBRANCH  11  13
ENDBRANCH   1  11
TORSDOF 4
